Version 4
SHEET 1 880 680
WIRE 192 16 96 16
WIRE 304 16 272 16
WIRE 304 48 304 16
WIRE 96 128 96 16
WIRE 304 160 304 112
WIRE 96 272 96 208
WIRE 224 272 96 272
WIRE 304 272 304 224
WIRE 304 272 224 272
WIRE 224 320 224 272
FLAG 224 320 0
SYMBOL voltage 96 112 R0
WINDOW 3 -329 58 Left 2
WINDOW 123 0 0 Left 0
WINDOW 39 0 0 Left 0
SYMATTR Value PULSE(0 5 .5 .01 .01 2 3)
SYMATTR InstName V1
SYMBOL diode 288 48 R0
SYMATTR InstName D1
SYMBOL cap 288 160 R0
SYMATTR InstName C1
SYMATTR Value .001
SYMBOL res 288 0 R90
WINDOW 0 0 56 VBottom 2
WINDOW 3 32 56 VTop 2
SYMATTR InstName R1
SYMATTR Value 1
TEXT -232 280 Left 2 !.tran 0 20 0
