Version 4
SHEET 1 880 680
WIRE 128 64 48 64
WIRE 144 64 128 64
WIRE 256 64 208 64
WIRE 336 64 256 64
WIRE 448 64 416 64
WIRE 512 64 448 64
WIRE 624 64 592 64
WIRE 48 112 48 64
WIRE 256 112 256 64
WIRE 448 112 448 64
WIRE 624 112 624 64
WIRE 48 224 48 192
WIRE 256 224 256 176
WIRE 256 224 48 224
WIRE 432 224 256 224
WIRE 448 224 448 176
WIRE 448 224 432 224
WIRE 624 224 624 176
WIRE 624 224 448 224
WIRE 432 272 432 224
WIRE 432 368 432 352
FLAG 432 368 0
SYMBOL voltage 48 96 R0
WINDOW 3 25 248 Left 2
WINDOW 123 0 0 Left 0
WINDOW 39 0 0 Left 0
SYMATTR Value PULSE(0 5 1 .01 .01 2 6)
SYMATTR InstName V1
SYMBOL res 112 80 R270
WINDOW 0 32 56 VTop 2
WINDOW 3 0 56 VBottom 2
SYMATTR InstName R1
SYMATTR Value 1000
SYMBOL cap 272 176 R180
WINDOW 0 24 56 Left 2
WINDOW 3 24 8 Left 2
SYMATTR InstName C1
SYMATTR Value .001
SYMBOL cap 432 112 R0
SYMATTR InstName C2
SYMATTR Value .001
SYMBOL res 432 48 R90
WINDOW 0 0 56 VBottom 2
WINDOW 3 32 56 VTop 2
SYMATTR InstName R2
SYMATTR Value 900
SYMBOL cap 608 112 R0
SYMATTR InstName C3
SYMATTR Value .001
SYMBOL res 608 48 R90
WINDOW 0 0 56 VBottom 2
WINDOW 3 32 56 VTop 2
SYMATTR InstName R3
SYMATTR Value 1000
SYMBOL voltage 432 368 R180
WINDOW 123 0 0 Left 0
WINDOW 39 0 0 Left 0
SYMATTR InstName V2
SYMATTR Value 1.6
TEXT -168 264 Left 2 !.tran 100
